/*--------------------------------*- C++ -*----------------------------------*\
| =========                 |                                                 |
| \\      /  F ield         | foam-extend: Open Source CFD                    |
|  \\    /   O peration     | Version:     4.1                                |
|   \\  /    A nd           | Web:         http://www.foam-extend.org         |
|    \\/     M anipulation  |                                                 |
\*---------------------------------------------------------------------------*/
FoamFile
{
    version     2.0;
    format      ascii;
    class       volSymmTensorField;
    object      tau;
}
// * * * * * * * * * * * * * * * * * * * * * * * * * * * * * * * * * * * * * //

dimensions      [1 -1 -2 0 0 0 0];

internalField   uniform (0 0 0 0 0 0);

boundaryField
{
    inlet
    {
        type            zeroGradient;
        value           uniform (0 0 0 0 0 0);
    }
    fixedWalls
    {
        type            zeroGradient;
        value           uniform (0 0 0 0 0 0);
    }
    outlet
    {
        type            zeroGradient;
        value           uniform (0 0 0 0 0 0);
    }
    simetry
    {
        type            symmetryPlane;
    }
    frontandBack
    {
        type            empty;
    }
}


// ************************************************************************* //
